
OS:Version,
  {54a93071-bdd8-4e1c-8da8-b35bd6af8deb}, !- Handle
  3.3.0;                                  !- Version Identifier

OS:Site,
  {528cc7ff-8983-4308-99d2-a72ea9a42915}, !- Handle
  San Francisco Intl Ap,                  !- Name
  37.62,                                  !- Latitude {deg}
  -122.4,                                 !- Longitude {deg}
  -8,                                     !- Time Zone {hr}
  2,                                      !- Elevation {m}
  City;                                   !- Terrain

OS:SimulationControl,
  {753f9d6a-daba-43a8-b460-6691c9b3fe9e}, !- Handle
  Yes,                                    !- Do Zone Sizing Calculation
  Yes,                                    !- Do System Sizing Calculation
  Yes,                                    !- Do Plant Sizing Calculation
  No,                                     !- Run Simulation for Sizing Periods
  Yes,                                    !- Run Simulation for Weather File Run Periods
  0.04,                                   !- Loads Convergence Tolerance Value {W}
  0.2,                                    !- Temperature Convergence Tolerance Value {deltaC}
  FullInteriorAndExterior,                !- Solar Distribution
  25,                                     !- Maximum Number of Warmup Days
  6,                                      !- Minimum Number of Warmup Days
  No,                                     !- Do HVAC Sizing Simulation for Sizing Periods
  1;                                      !- Maximum Number of HVAC Sizing Simulation Passes

OS:Building,
  {fc82e66c-af75-4337-8a56-0fa9a78ba00e}, !- Handle
  OfficeMedium,                           !- Name
  ,                                       !- Building Sector Type
  0,                                      !- North Axis {deg}
  ,                                       !- Nominal Floor to Floor Height {m}
  ,                                       !- Space Type Name
  ,                                       !- Default Construction Set Name
  ;                                       !- Default Schedule Set Name

OS:Timestep,
  {36c550d1-c870-461b-98c7-7b11d5224533}, !- Handle
  6;                                      !- Number of Timesteps per Hour

OS:ConvergenceLimits,
  {5a28bb29-9726-4b7c-b05e-984f60082569}, !- Handle
  1,                                      !- Minimum System Timestep {minutes}
  20;                                     !- Maximum HVAC Iterations

OS:HeatBalanceAlgorithm,
  {276b4173-21a3-49ff-bdae-d70be466bb16}, !- Handle
  ConductionTransferFunction,             !- Algorithm
  200;                                    !- Surface Temperature Upper Limit {C}

OS:ShadowCalculation,
  {26761a20-c9cd-4d86-b971-a116bc3fa5dd}, !- Handle
  PolygonClipping,                        !- Shading Calculation Method
  Periodic,                               !- Shading Calculation Update Frequency Method
  30,                                     !- Shading Calculation Update Frequency
  15000,                                  !- Maximum Figures in Shadow Overlap Calculations
  ,                                       !- Polygon Clipping Algorithm
  512,                                    !- Pixel Counting Resolution
  ,                                       !- Sky Diffuse Modeling Algorithm
  No,                                     !- Output External Shading Calculation Results
  No,                                     !- Disable Self-Shading Within Shading Zone Groups
  No;                                     !- Disable Self-Shading From Shading Zone Groups to Other Zones

OS:RunPeriod,
  {8a4b24a5-8efe-4e3a-80bb-2ca128ff2753}, !- Handle
  RUNPERIOD 1,                            !- Name
  1,                                      !- Begin Month
  1,                                      !- Begin Day of Month
  12,                                     !- End Month
  31,                                     !- End Day of Month
  No,                                     !- Use Weather File Holidays and Special Days
  No,                                     !- Use Weather File Daylight Saving Period
  No,                                     !- Apply Weekend Holiday Rule
  Yes,                                    !- Use Weather File Rain Indicators
  Yes,                                    !- Use Weather File Snow Indicators
  ;                                       !- Number of Times Runperiod to be Repeated

OS:YearDescription,
  {ef66065e-5209-4fa0-ba7e-a953da49d704}, !- Handle
  ,                                       !- Calendar Year
  Sunday;                                 !- Day of Week for Start Day

OS:RunPeriodControl:SpecialDays,
  {1325ed95-f38f-481f-acef-a8b5e8070719}, !- Handle
  New Years Day,                          !- Name
  January 1,                              !- Start Date
  1,                                      !- Duration {days}
  Holiday;                                !- Special Day Type

OS:RunPeriodControl:SpecialDays,
  {b707a8e1-2b35-4257-83d1-9db0111c76d4}, !- Handle
  Veterans Day,                           !- Name
  November 11,                            !- Start Date
  1,                                      !- Duration {days}
  Holiday;                                !- Special Day Type

OS:RunPeriodControl:SpecialDays,
  {29782e88-d9bc-4df0-8a6c-a6572e0c092d}, !- Handle
  Christmas,                              !- Name
  December 25,                            !- Start Date
  1,                                      !- Duration {days}
  Holiday;                                !- Special Day Type

OS:RunPeriodControl:SpecialDays,
  {1cd83ffc-db54-4a2d-954a-fd8b13a5c4dd}, !- Handle
  Independence Day,                       !- Name
  July 4,                                 !- Start Date
  1,                                      !- Duration {days}
  Holiday;                                !- Special Day Type

OS:RunPeriodControl:SpecialDays,
  {50f2292c-ee64-42b6-86dc-e8d92b6e7c9d}, !- Handle
  MLK Day,                                !- Name
  3rd Monday in January,                  !- Start Date
  1,                                      !- Duration {days}
  Holiday;                                !- Special Day Type

OS:RunPeriodControl:SpecialDays,
  {4585fa7e-6201-4f94-8b1f-c5dc6d18f7bb}, !- Handle
  Presidents Day,                         !- Name
  3rd Monday in February,                 !- Start Date
  1,                                      !- Duration {days}
  Holiday;                                !- Special Day Type

OS:RunPeriodControl:SpecialDays,
  {d33274e9-3c8c-4d0f-925d-8e62463fe2b1}, !- Handle
  Memorial Day,                           !- Name
  Last Monday in May,                     !- Start Date
  1,                                      !- Duration {days}
  Holiday;                                !- Special Day Type

OS:RunPeriodControl:SpecialDays,
  {33e100d3-5ed2-4146-a2e8-2c5036aaadfb}, !- Handle
  Labor Day,                              !- Name
  1st Monday in September,                !- Start Date
  1,                                      !- Duration {days}
  Holiday;                                !- Special Day Type

OS:RunPeriodControl:SpecialDays,
  {d6733817-c4b5-446b-8a00-7ffc8f4808f1}, !- Handle
  Columbus Day,                           !- Name
  2nd Monday in October,                  !- Start Date
  1,                                      !- Duration {days}
  Holiday;                                !- Special Day Type

OS:RunPeriodControl:SpecialDays,
  {fd0c3fcd-6783-4c85-af6f-6028873193af}, !- Handle
  Thanksgiving,                           !- Name
  4th Thursday in November,               !- Start Date
  1,                                      !- Duration {days}
  Holiday;                                !- Special Day Type

OS:RunPeriodControl:DaylightSavingTime,
  {c108fe0b-7e21-430b-93fa-63113c0f6341}, !- Handle
  2nd Sunday in March,                    !- Start Date
  1st Sunday in November;                 !- End Date

OS:Material:NoMass,
  {70eb100e-a43a-4788-b428-08fe3b50615a}, !- Handle
  Opaque Door panel_con,                  !- Name
  MediumRough,                            !- Roughness
  0.288704918,                            !- Thermal Resistance {m2-K/W}
  0.9,                                    !- Thermal Absorptance
  0.7,                                    !- Solar Absorptance
  0.7;                                    !- Visible Absorptance

OS:Construction,
  {c745ae3d-30cc-414f-850e-7939412effe5}, !- Handle
  Swinging Door_con,                      !- Name
  ,                                       !- Surface Rendering Name
  {70eb100e-a43a-4788-b428-08fe3b50615a}; !- Layer 1

OS:Material,
  {59a87cd4-5ae7-4ef7-9cce-3ccb39385533}, !- Handle
  Std Wood 6inch,                         !- Name
  MediumSmooth,                           !- Roughness
  0.15,                                   !- Thickness {m}
  0.12,                                   !- Conductivity {W/m-K}
  540,                                    !- Density {kg/m3}
  1210,                                   !- Specific Heat {J/kg-K}
  0.9,                                    !- Thermal Absorptance
  0.7,                                    !- Solar Absorptance
  0.7;                                    !- Visible Absorptance

OS:Material,
  {f2c59fcb-a913-439e-bdd6-628030f5497f}, !- Handle
  AC02 Acoustic Ceiling,                  !- Name
  MediumSmooth,                           !- Roughness
  0.0127,                                 !- Thickness {m}
  0.057,                                  !- Conductivity {W/m-K}
  288,                                    !- Density {kg/m3}
  1339,                                   !- Specific Heat {J/kg-K}
  0.9,                                    !- Thermal Absorptance
  0.7,                                    !- Solar Absorptance
  0.2;                                    !- Visible Absorptance

OS:Material,
  {732a659f-d06d-4154-85c5-70abc34dab98}, !- Handle
  F07 25mm stucco,                        !- Name
  Smooth,                                 !- Roughness
  0.0254,                                 !- Thickness {m}
  0.72,                                   !- Conductivity {W/m-K}
  1856,                                   !- Density {kg/m3}
  840,                                    !- Specific Heat {J/kg-K}
  0.9,                                    !- Thermal Absorptance
  0.7,                                    !- Solar Absorptance
  0.7;                                    !- Visible Absorptance

OS:Material,
  {28cb6139-dc60-40b6-8698-7d9a549a7f18}, !- Handle
  F08 Metal surface,                      !- Name
  Smooth,                                 !- Roughness
  0.0008,                                 !- Thickness {m}
  45.28,                                  !- Conductivity {W/m-K}
  7824,                                   !- Density {kg/m3}
  500;                                    !- Specific Heat {J/kg-K}

OS:Material,
  {facd15ca-184f-4995-998f-ef461f974342}, !- Handle
  F08 Metal roof surface,                 !- Name
  Smooth,                                 !- Roughness
  0.0008,                                 !- Thickness {m}
  45.28,                                  !- Conductivity {W/m-K}
  7824,                                   !- Density {kg/m3}
  500,                                    !- Specific Heat {J/kg-K}
  0.75,                                   !- Thermal Absorptance
  0.45;                                   !- Solar Absorptance

OS:Material,
  {3f7d7dd9-47c8-40cc-8b82-b902fc584579}, !- Handle
  F12 Asphalt shingles,                   !- Name
  VeryRough,                              !- Roughness
  0.0032,                                 !- Thickness {m}
  0.04,                                   !- Conductivity {W/m-K}
  1120,                                   !- Density {kg/m3}
  1260,                                   !- Specific Heat {J/kg-K}
  0.75,                                   !- Thermal Absorptance
  0.45;                                   !- Solar Absorptance

OS:Material,
  {106d9112-790f-40f3-ae06-8b0376661206}, !- Handle
  F13 Built-up roofing,                   !- Name
  Rough,                                  !- Roughness
  0.0095,                                 !- Thickness {m}
  0.16,                                   !- Conductivity {W/m-K}
  1120,                                   !- Density {kg/m3}
  1460,                                   !- Specific Heat {J/kg-K}
  0.75,                                   !- Thermal Absorptance
  0.45;                                   !- Solar Absorptance

OS:Material,
  {0726ee96-e7f9-4227-86e0-9ea5082c1135}, !- Handle
  G01 13mm gypsum board,                  !- Name
  Smooth,                                 !- Roughness
  0.0127,                                 !- Thickness {m}
  0.16,                                   !- Conductivity {W/m-K}
  800,                                    !- Density {kg/m3}
  1090,                                   !- Specific Heat {J/kg-K}
  0.9,                                    !- Thermal Absorptance
  0.7,                                    !- Solar Absorptance
  0.5;                                    !- Visible Absorptance

OS:Material,
  {96be6d6e-5de9-4ddc-af7b-e094e3950185}, !- Handle
  G01 16mm gypsum board,                  !- Name
  MediumSmooth,                           !- Roughness
  0.0159,                                 !- Thickness {m}
  0.16,                                   !- Conductivity {W/m-K}
  800,                                    !- Density {kg/m3}
  1090;                                   !- Specific Heat {J/kg-K}

OS:Material,
  {a578c6dd-d828-4080-9731-a5c028853f72}, !- Handle
  G02 16mm plywood,                       !- Name
  Smooth,                                 !- Roughness
  0.0159,                                 !- Thickness {m}
  0.12,                                   !- Conductivity {W/m-K}
  544,                                    !- Density {kg/m3}
  1210;                                   !- Specific Heat {J/kg-K}

OS:Material,
  {2446c2b7-6abd-4fde-b429-6186ea4766d8}, !- Handle
  M14 150mm heavyweight concrete roof,    !- Name
  MediumRough,                            !- Roughness
  0.1524,                                 !- Thickness {m}
  2.31,                                   !- Conductivity {W/m-K}
  2322,                                   !- Density {kg/m3}
  832;                                    !- Specific Heat {J/kg-K}

OS:Material,
  {b40074d9-1239-4723-b8f9-1828d7746111}, !- Handle
  100mm Normalweight concrete wall,       !- Name
  MediumRough,                            !- Roughness
  0.1016,                                 !- Thickness {m}
  2.31,                                   !- Conductivity {W/m-K}
  2322,                                   !- Density {kg/m3}
  832;                                    !- Specific Heat {J/kg-K}

OS:Material,
  {db7c439e-30a7-4ec4-819f-75512b49072f}, !- Handle
  200mm Normalweight concrete wall,       !- Name
  MediumRough,                            !- Roughness
  0.2032,                                 !- Thickness {m}
  2.31,                                   !- Conductivity {W/m-K}
  2322,                                   !- Density {kg/m3}
  832;                                    !- Specific Heat {J/kg-K}

OS:Material,
  {6c8c1f71-4d4f-4885-ab0a-847856d64a14}, !- Handle
  100mm Normalweight concrete floor,      !- Name
  MediumRough,                            !- Roughness
  0.1016,                                 !- Thickness {m}
  2.31,                                   !- Conductivity {W/m-K}
  2322,                                   !- Density {kg/m3}
  832;                                    !- Specific Heat {J/kg-K}

OS:Material,
  {5a139948-f6bf-4d7c-a61a-e3c14b49a268}, !- Handle
  150mm Normalweight concrete floor,      !- Name
  MediumRough,                            !- Roughness
  0.1524,                                 !- Thickness {m}
  2.31,                                   !- Conductivity {W/m-K}
  2322,                                   !- Density {kg/m3}
  832;                                    !- Specific Heat {J/kg-K}

OS:Material,
  {f1fb060d-e4dc-47e5-ac4f-ba163fed9c75}, !- Handle
  200mm Normalweight concrete floor,      !- Name
  MediumRough,                            !- Roughness
  0.2032,                                 !- Thickness {m}
  2.31,                                   !- Conductivity {W/m-K}
  2322,                                   !- Density {kg/m3}
  832;                                    !- Specific Heat {J/kg-K}

OS:Material,
  {b3c44846-3f59-4106-8004-16eb9c3a2ad5}, !- Handle
  M10 200mm concrete block wall,          !- Name
  MediumRough,                            !- Roughness
  0.2032,                                 !- Thickness {m}
  0.72,                                   !- Conductivity {W/m-K}
  800,                                    !- Density {kg/m3}
  832;                                    !- Specific Heat {J/kg-K}

OS:Material,
  {72fe02ce-2edf-44b0-82e3-ebc585a6d334}, !- Handle
  M10 200mm concrete block basement wall, !- Name
  MediumRough,                            !- Roughness
  0.2032,                                 !- Thickness {m}
  1.326,                                  !- Conductivity {W/m-K}
  1842,                                   !- Density {kg/m3}
  912;                                    !- Specific Heat {J/kg-K}

OS:Material:NoMass,
  {80459449-3304-435f-8eb7-83a39f8eff9e}, !- Handle
  CP02 CARPET PAD,                        !- Name
  VeryRough,                              !- Roughness
  0.21648,                                !- Thermal Resistance {m2-K/W}
  0.9,                                    !- Thermal Absorptance
  0.7,                                    !- Solar Absorptance
  0.8;                                    !- Visible Absorptance

OS:Material:NoMass,
  {cce1483f-5ac3-4ae7-b2b7-7dc18c4a2174}, !- Handle
  Air_Wall_Material,                      !- Name
  Rough,                                  !- Roughness
  0.2079491,                              !- Thermal Resistance {m2-K/W}
  0.9,                                    !- Thermal Absorptance
  0.7;                                    !- Solar Absorptance

OS:Material:NoMass,
  {a9612cd3-bf1b-4732-9676-761b88ee3e05}, !- Handle
  Nonres_Roof_Insulation,                 !- Name
  MediumSmooth,                           !- Roughness
  4.31888738734588,                       !- Thermal Resistance {m2-K/W}
  0.9,                                    !- Thermal Absorptance
  0.7,                                    !- Solar Absorptance
  0.7;                                    !- Visible Absorptance

OS:Material:NoMass,
  {01f9d739-f96b-499e-baf6-5525e185acc7}, !- Handle
  Res_Roof_Insulation,                    !- Name
  MediumSmooth,                           !- Roughness
  0.0299387330245182,                     !- Thermal Resistance {m2-K/W}
  0.9,                                    !- Thermal Absorptance
  0.7,                                    !- Solar Absorptance
  0.7;                                    !- Visible Absorptance

OS:Schedule:Compact,
  {17e54350-f81d-4f31-8126-a0ad75c0e422}, !- Handle
  Exterior_lighting_schedule_a_IECC2015,  !- Name
  {f73bc159-e6d3-4aad-8c77-abea15849751}, !- Schedule Type Limits Name
  Through:12/31,                          !- Field 1
  For:Weekdays SummerDesignDay,           !- Field 2
  Until: 07:00,                           !- Field 3
  0,                                      !- Field 4
  Until: 22:00,                           !- Field 5
  1,                                      !- Field 6
  Until: 24:00,                           !- Field 7
  0,                                      !- Field 8
  For:Saturdays,                          !- Field 9
  Until: 07:00,                           !- Field 10
  0,                                      !- Field 11
  Until: 18:00,                           !- Field 12
  1,                                      !- Field 13
  Until: 24:00,                           !- Field 14
  0,                                      !- Field 15
  For:AllOtherDays,                       !- Field 16
  Until: 24:00,                           !- Field 17
  0;                                      !- Field 18

OS:ScheduleTypeLimits,
  {f73bc159-e6d3-4aad-8c77-abea15849751}, !- Handle
  Fraction,                               !- Name
  0,                                      !- Lower Limit Value
  1,                                      !- Upper Limit Value
  Continuous;                             !- Numeric Type

OS:Curve:Quadratic,
  {1f743272-fb06-4a71-9452-16b1fa13f2a1}, !- Handle
  FURNACE_PACU_VAV_CoolCCarrier48TM014_12tons_EIRFFF, !- Name
  1.19525,                                !- Coefficient1 Constant
  -0.306138,                              !- Coefficient2 x
  0.110973,                               !- Coefficient3 x**2
  0.75,                                   !- Minimum Value of x
  1.25;                                   !- Maximum Value of x

OS:Material:NoMass,
  {6ce9219c-3a64-4cbf-8aab-1ed3e6e939b1}, !- Handle
  Semiheated_Roof_Insulation,             !- Name
  MediumSmooth,                           !- Roughness
  0.0299387330245182,                     !- Thermal Resistance {m2-K/W}
  0.9,                                    !- Thermal Absorptance
  0.7,                                    !- Solar Absorptance
  0.7;                                    !- Visible Absorptance

OS:Material:NoMass,
  {66656c66-b1cb-415f-abb7-03446bcf7e94}, !- Handle
  Nonres_Exterior_Wall_Insulation,        !- Name
  MediumSmooth,                           !- Roughness
  2.36800034244138,                       !- Thermal Resistance {m2-K/W}
  0.9,                                    !- Thermal Absorptance
  0.7,                                    !- Solar Absorptance
  0.7;                                    !- Visible Absorptance

OS:Material:NoMass,
  {ad4a3dad-d9dc-4b92-b7ee-a9c5a3ce99d5}, !- Handle
  Res_Exterior_Wall_Insulation,           !- Name
  MediumSmooth,                           !- Roughness
  0.0299387330245182,                     !- Thermal Resistance {m2-K/W}
  0.9,                                    !- Thermal Absorptance
  0.7,                                    !- Solar Absorptance
  0.7;                                    !- Visible Absorptance

OS:Material:NoMass,
  {633aca97-e183-41c1-a513-0c23e64cd183}, !- Handle
  Semiheated_Exterior_Wall_Insulation,    !- Name
  MediumSmooth,                           !- Roughness
  0.0299387330245182,                     !- Thermal Resistance {m2-K/W}
  0.9,                                    !- Thermal Absorptance
  0.7,                                    !- Solar Absorptance
  0.7;                                    !- Visible Absorptance

OS:Material:NoMass,
  {afde5fe7-4572-4370-b949-e4064bffbf7d}, !- Handle
  Nonres_Floor_Insulation,                !- Name
  MediumSmooth,                           !- Roughness
  0.0299387330245182,                     !- Thermal Resistance {m2-K/W}
  0.9,                                    !- Thermal Absorptance
  0.7,                                    !- Solar Absorptance
  0.7;                                    !- Visible Absorptance

OS:Material:NoMass,
  {ba0e1943-5f92-4f71-9153-ae5b03d7e6c1}, !- Handle
  Res_Floor_Insulation,                   !- Name
  MediumSmooth,                           !- Roughness
  0.0299387330245182,                     !- Thermal Resistance {m2-K/W}
  0.9,                                    !- Thermal Absorptance
  0.7,                                    !- Solar Absorptance
  0.7;                                    !- Visible Absorptance

OS:Material:NoMass,
  {8b8c4b3d-e220-4a58-917d-5954ebcf29cb}, !- Handle
  Semiheated_Floor_Insulation,            !- Name
  MediumSmooth,                           !- Roughness
  0.0299387330245182,                     !- Thermal Resistance {m2-K/W}
  0.9,                                    !- Thermal Absorptance
  0.7,                                    !- Solar Absorptance
  0.7;                                    !- Visible Absorptance

OS:Material:NoMass,
  {19ddb858-ef94-48b0-80e3-12bb2814c69f}, !- Handle
  Std Opaque Door Panel,                  !- Name
  MediumRough,                            !- Roughness
  0.123456790123457,                      !- Thermal Resistance {m2-K/W}
  0.9,                                    !- Thermal Absorptance
  0.7,                                    !- Solar Absorptance
  0.7;                                    !- Visible Absorptance

OS:Construction,
  {f136c091-f7bc-412e-8b21-d1d08073c56f}, !- Handle
  InteriorFurnishings,                    !- Name
  ,                                       !- Surface Rendering Name
  {59a87cd4-5ae7-4ef7-9cce-3ccb39385533}; !- Layer 1

OS:Construction,
  {65c1041c-8432-465f-8e92-f2f8e51f5b79}, !- Handle
  Air_Wall,                               !- Name
  ,                                       !- Surface Rendering Name
  {cce1483f-5ac3-4ae7-b2b7-7dc18c4a2174}; !- Layer 1

OS:Construction,
  {2e90ee34-1177-4280-8d27-623991861a7a}, !- Handle
  DropCeiling,                            !- Name
  ,                                       !- Surface Rendering Name
  {f2c59fcb-a913-439e-bdd6-628030f5497f}; !- Layer 1

OS:Construction,
  {1555c509-6825-48e8-b000-adf5f251d67d}, !- Handle
  OpaqueDoor,                             !- Name
  ,                                       !- Surface Rendering Name
  {19ddb858-ef94-48b0-80e3-12bb2814c69f}; !- Layer 1

OS:Construction,
  {cac096c3-bcd1-481e-9e50-995bdc18a2ca}, !- Handle
  AtticRoofDeck,                          !- Name
  ,                                       !- Surface Rendering Name
  {3f7d7dd9-47c8-40cc-8b82-b902fc584579}, !- Layer 1
  {a578c6dd-d828-4080-9731-a5c028853f72}; !- Layer 2

OS:Construction,
  {26491d40-475d-4749-a103-d6ed4d675a3c}, !- Handle
  int_wall,                               !- Name
  ,                                       !- Surface Rendering Name
  {0726ee96-e7f9-4227-86e0-9ea5082c1135}, !- Layer 1
  {0726ee96-e7f9-4227-86e0-9ea5082c1135}; !- Layer 2

OS:Construction,
  {59a923e1-8798-4921-a19b-fe7fd4ecd31c}, !- Handle
  ext_slab_8in_with_carpet,               !- Name
  ,                                       !- Surface Rendering Name
  {f1fb060d-e4dc-47e5-ac4f-ba163fed9c75}, !- Layer 1
  {80459449-3304-435f-8eb7-83a39f8eff9e}; !- Layer 2

OS:Construction,
  {a6ca1ff6-6ec6-4abe-9faa-6f00f7930e5d}, !- Handle
  ext_slab_8in,                           !- Name
  ,                                       !- Surface Rendering Name
  {f1fb060d-e4dc-47e5-ac4f-ba163fed9c75}; !- Layer 1

OS:Construction,
  {b8255a34-5f01-4ff3-887b-56d990251067}, !- Handle
  ext_slab_6in_with_carpet,               !- Name
  ,                                       !- Surface Rendering Name
  {5a139948-f6bf-4d7c-a61a-e3c14b49a268}, !- Layer 1
  {80459449-3304-435f-8eb7-83a39f8eff9e}; !- Layer 2

OS:Construction,
  {bc965d76-ddc7-4690-baef-1d62ae0ab425}, !- Handle
  ext_slab_6in,                           !- Name
  ,                                       !- Surface Rendering Name
  {5a139948-f6bf-4d7c-a61a-e3c14b49a268}; !- Layer 1

OS:Construction,
  {df93bf55-33fd-49e9-91f4-52010723176c}, !- Handle
  int_slab_floor,                         !- Name
  ,                                       !- Surface Rendering Name
  {6c8c1f71-4d4f-4885-ab0a-847856d64a14}, !- Layer 1
  {80459449-3304-435f-8eb7-83a39f8eff9e}; !- Layer 2

OS:Construction,
  {4a8b53a2-913e-4ef6-ad71-301a75e56c26}, !- Handle
  int_slab_ceiling,                       !- Name
  ,                                       !- Surface Rendering Name
  {80459449-3304-435f-8eb7-83a39f8eff9e}, !- Layer 1
  {6c8c1f71-4d4f-4885-ab0a-847856d64a14}; !- Layer 2

OS:Construction,
  {acc3cc43-bf18-4e2b-9362-6aebba5c3214}, !- Handle
  basement_wall,                          !- Name
  ,                                       !- Surface Rendering Name
  {72fe02ce-2edf-44b0-82e3-ebc585a6d334}; !- Layer 1

OS:Construction,
  {f82dd81a-1345-421d-9fcb-4c0c447a9808}, !- Handle
  int_wood_floor,                         !- Name
  ,                                       !- Surface Rendering Name
  {f2c59fcb-a913-439e-bdd6-628030f5497f}, !- Layer 1
  {a578c6dd-d828-4080-9731-a5c028853f72}, !- Layer 2
  {80459449-3304-435f-8eb7-83a39f8eff9e}; !- Layer 3

OS:Construction,
  {e72cb801-0cf1-415a-9c9e-d245a6c0fe13}, !- Handle
  ext_soffit_floor,                       !- Name
  ,                                       !- Surface Rendering Name
  {a578c6dd-d828-4080-9731-a5c028853f72}; !- Layer 1

OS:Construction,
  {edcb4883-316f-4651-9c38-21e5b4c739b9}, !- Handle
  nonres_roof,                            !- Name
  ,                                       !- Surface Rendering Name
  {106d9112-790f-40f3-ae06-8b0376661206}, !- Layer 1
  {a9612cd3-bf1b-4732-9676-761b88ee3e05}, !- Layer 2
  {28cb6139-dc60-40b6-8698-7d9a549a7f18}; !- Layer 3

OS:Construction,
  {d96ee4bb-3dc8-461d-92d6-ed46f91d3f45}, !- Handle
  res_roof,                               !- Name
  ,                                       !- Surface Rendering Name
  {106d9112-790f-40f3-ae06-8b0376661206}, !- Layer 1
  {01f9d739-f96b-499e-baf6-5525e185acc7}, !- Layer 2
  {28cb6139-dc60-40b6-8698-7d9a549a7f18}; !- Layer 3

OS:Construction,
  {8ab1ecbe-6e77-4df9-897e-7b5c973d9d0c}, !- Handle
  semiheated_roof,                        !- Name
  ,                                       !- Surface Rendering Name
  {106d9112-790f-40f3-ae06-8b0376661206}, !- Layer 1
  {6ce9219c-3a64-4cbf-8aab-1ed3e6e939b1}, !- Layer 2
  {28cb6139-dc60-40b6-8698-7d9a549a7f18}; !- Layer 3

OS:Construction,
  {9855d125-968c-413d-9917-e381b02e153f}, !- Handle
  nonres_ext_wall,                        !- Name
  ,                                       !- Surface Rendering Name
  {732a659f-d06d-4154-85c5-70abc34dab98}, !- Layer 1